modified: BCCON BCPROPS
OUTPUT: STRESS??,DELSTR? STRAIN? DISP? MECHPOTF PRESPOTF TEMPPOTF

RUNSPEC: MECH
GRID: YMODULE, PRATIO, BIOTCOEF, THELCOEF, POELCOEF, TERMEXP
REGION: STRESSEQUILNUM
SOLUTION: STRESSEQUIL
SCHEDULE: BCPROPS
