---------------------------------------------------------
---                                                   ---
---           M   M   RRRR     SSSS   TTTTT           ---
---           MM MM   R   R   S         T             ---
---           M M M   RRRR     SSS      T             ---
---           M   M   R R         S     T             ---
---           M   M   R  RR   SSSS      T             ---
---                                                   ---
--------------------------------- www.sintef.no/mrst  ---

-- Generated deck from MRST function writeDeck

---------------------------------------------------------
RUNSPEC
---------------------------------------------------------
TITLE
waterthermal

DIMENS
       1        1        1
/

EQLDIMS
       1      100       50        1       50
/

TABDIMS
       1        1       50       50       16       30
/

WELLDIMS
       1        1       10        1
/

OIL
WATER
GAS
METRIC
UNIFOUT
THERMAL
MECH
START
 01 'JAN' 1983
/

---------------------------------------------------------
GRID
---------------------------------------------------------
INIT
SPECGRID
1 1 1 1 F
/

INCLUDE
'COORD.TXT'
/

INCLUDE
'ZCORN.TXT'
/

INCLUDE
'PERMX.TXT'
/

INCLUDE
'PERMY.TXT'
/

INCLUDE
'PERMZ.TXT'
/

INCLUDE
'PORO.TXT'
/

INCLUDE
'ACTNUM.TXT'
/

INCLUDE
'PRATIO.TXT'
/

INCLUDE
'YMODULE.TXT'
/

INCLUDE
'BIOTCOEF.TXT'
/

INCLUDE
'POELCOEF.TXT'
/

INCLUDE
'THELCOEF.TXT'
/

INCLUDE
'THERMEXR.TXT'
/

INCLUDE
'THCONR.TXT'
/

INCLUDE
'BCCON.TXT'
/

---------------------------------------------------------
EDIT
---------------------------------------------------------
PROPS
---------------------------------------------------------
INCLUDE
'DENSITY.TXT'
/

INCLUDE
'PVTW.TXT'
/

INCLUDE
'SWOF.TXT'
/

INCLUDE
'SGOF.TXT'
/

INCLUDE
'PVDO.TXT'
/

INCLUDE
'PVDG.TXT'
/

INCLUDE
'SPECROCK.TXT'
/

INCLUDE
'SPECHEAT.TXT'
/

---------------------------------------------------------
REGIONS
---------------------------------------------------------
---------------------------------------------------------
SOLUTION
---------------------------------------------------------
INCLUDE
'DATUM.TXT'
/

INCLUDE
'EQUIL.TXT'
/

INCLUDE
'RPTRST.TXT'
/

INCLUDE
'RPTSOL.TXT'
/

INCLUDE
'RTEMPVD.TXT'
/

INCLUDE
'STREQUIL.TXT'
/


---------------------------------------------------------
SUMMARY
---------------------------------------------------------

ALL

---------------------------------------------------------
SCHEDULE
---------------------------------------------------------
RPTSCHED
PRES SGAS RS WELLS
/
RPTRST
BASIC=1
/
--INCLUDE
--SCHEDULE.TXT/
