---------------------------------------------------------
---                                                   ---
---           M   M   RRRR     SSSS   TTTTT           ---
---           MM MM   R   R   S         T             ---
---           M M M   RRRR     SSS      T             ---
---           M   M   R R         S     T             ---
---           M   M   R  RR   SSSS      T             ---
---                                                   ---
--------------------------------- www.sintef.no/mrst  ---

-- Generated deck from MRST function writeDeck

---------------------------------------------------------
RUNSPEC
---------------------------------------------------------
TITLE
waterthermal

DIMENS
      31       31       10 
/

TABDIMS
       1        1       50       50       16       30 
/

WELLDIMS
       1       10       10        1 
/

WATER
THERMAL
METRIC
UNIFOUT
---------------------------------------------------------
GRID
---------------------------------------------------------
INIT
SPECGRID
31 31 10 1 F
/

INCLUDE
'COORD.TXT'
/

INCLUDE
'ZCORN.TXT'
/

INCLUDE
'PERMX.TXT'
/

INCLUDE
'PERMY.TXT'
/

INCLUDE
'PERMZ.TXT'
/

INCLUDE
'PORO.TXT'
/

INCLUDE
'ACTNUM.TXT'
/


THCONR
   9610*1        
/
---------------------------------------------------------
EDIT
---------------------------------------------------------
PROPS
---------------------------------------------------------
INCLUDE
'DENSITY.TXT'
/

INCLUDE
'PVTW.TXT'
/

SPECROCK
--T [C]   Cp [KJ/Rm3 C]
0    2350
100    2350
 /

-- add fluid heat capacities
SPECHEAT
--T [C]   Cp [KJ/Rm3 C]  Cp [KJ/Rm3 C]  Cp [KJ/Rm3 C]
--          oil            water           gas 
0    2.1    3.9    2.1
100    2.1    3.9    2.1
 /



--RTEMP
--100 /
---------------------------------------------------------
REGIONS
---------------------------------------------------------
---------------------------------------------------------
SOLUTION
---------------------------------------------------------
--TEMPI
--9610*150
--/
RTEMPVD
2000 100
2100 100
/

BC
1 1 1 31 1 10 X- FREE /
31 31 1 31 1 10 X+ FREE /
1 31 1 1 1 10 Y- FREE /
1 31 31 31 1 10 Y+ FREE /
/
INCLUDE
'DATUM.TXT'
/

INCLUDE
'EQUIL.TXT'
/

INCLUDE
'RPTSOL.TXT'
/
RPTRST
BASIC=2 
/

---------------------------------------------------------
SUMMARY
---------------------------------------------------------

ALL

---------------------------------------------------------
SCHEDULE
---------------------------------------------------------
RPTSCHED
PRES SGAS RS WELLS
/
RPTRST
BASIC=1
/

INCLUDE
SCHEDULE.TXT/



