---------------------------------------------------------
---                                                   ---
---           M   M   RRRR     SSSS   TTTTT           ---
---           MM MM   R   R   S         T             ---
---           M M M   RRRR     SSS      T             ---
---           M   M   R R         S     T             ---
---           M   M   R  RR   SSSS      T             ---
---                                                   ---
--------------------------------- www.sintef.no/mrst  ---

-- Generated deck from MRST function writeDeck

---------------------------------------------------------
RUNSPEC
---------------------------------------------------------
TITLE
waterthermal

DIMENS
      31       31       10 
/

TABDIMS
       1        1       50       50       16       30 
/

WELLDIMS
       1       10       10        1 
/

WATER
METRIC
UNIFOUT
---------------------------------------------------------
GRID
---------------------------------------------------------
INIT
SPECGRID
31 31 10 1 F
/

INCLUDE
'COORD.TXT'
/

INCLUDE
'ZCORN.TXT'
/

INCLUDE
'PERMX.TXT'
/

INCLUDE
'PERMY.TXT'
/

INCLUDE
'PERMZ.TXT'
/

INCLUDE
'PORO.TXT'
/

INCLUDE
'ACTNUM.TXT'
/

---------------------------------------------------------
EDIT
---------------------------------------------------------
PROPS
---------------------------------------------------------
INCLUDE
'DENSITY.TXT'
/

INCLUDE
'PVTW.TXT'
/

---------------------------------------------------------
REGIONS
---------------------------------------------------------
---------------------------------------------------------
SOLUTION
---------------------------------------------------------
INCLUDE
'DATUM.TXT'
/

INCLUDE
'EQUIL.TXT'
/

INCLUDE
'RPTSOL.TXT'
/

---------------------------------------------------------
SUMMARY
---------------------------------------------------------

ALL
/

---------------------------------------------------------
SCHEDULE
---------------------------------------------------------
RPTSCHED
PRES SGAS RS WELLS
/
RPTRST
BASIC=1
/
INCLUDE
SCHEDULE.TXT/

