--./nov12/model5_nov11/FLOW_MODEL5_DXYZ20_MECH_NODAM_FRAC_TC15_MOD_TEMPLATE.DATA0
RUNSPEC
DIMENS
-- 100 150 25 /
  11 11 25 /    
OIL
WATER
GAS
DISGAS
METRIC
--THERMAL
TEMP
MECH
--FRAC
START
 1 'JAN' 2020 /
GRIDOPTS
 'YES' 0 /
EQLDIMS
 1 1* 25 /
REGDIMS
 3 2 1* 2 /
TABDIMS
 1 1 150 60 3 60 /
WELLDIMS
 10 15 90 10 /
VFPPDIMS
 22 13 10 13 13 50 /
UNIFIN
UNIFOUT
GRID
NEWTRAN
GRIDFILE
 0 1 /
GRIDUNIT
 'METRES' /
INIT
--SPECGRID
-- 100 150 25 1 'F' /

TOPS
  121*1900 /
DXV
  11*181 /
DYV
  11*181 /
DZV
  25*20 /

-- EQUALS
--   PERMX 10   4* 1 10 /
--   PERMX 1000 4* 11 20 /
--   PERMX 10   4* 21 25 /
-- 	PORO  0.1  4* 1 10 /
-- 	PORO  0.28 4* 11 20 /
-- 	PORO  0.1  4* 21 25 /
-- /
EQUALS
  PERMX 10 6* /
  PORO  0.1  6* /
/
    
EQUALS
   PERMX 1000 4* 11 20 /
   PORO  0.28 4* 11 20 / 
/   
--    EQUALS
--  PERMX 1000 6* /
--  PORO  0.28  6* /
--/

COPY
 'PERMX' 'PERMY' /
 'PERMX' 'PERMZ' /
/
MULTIPLY
 'PERMZ' 0.1 /
/


EQUALS
--  'THCONR' 108.0 /
      'THCONR' 0.0 /
  'PRATIO' 0.35 /
  'YMODULE' 14.0 /
  'CSTRESS' 5.55e6 /
  'BIOTCOEF' 1.0 /
  'THERMEXR' 1.5e-5 /      
/

    
BCCON
       1        1        1        2*        2*         X- / 
       2       11       11        2*        2*         X+ / 
       3        2*        1        1        2*         Y- / 
       4        2*       11       11        2*         Y+ / 
       5        2*        2*        1        1         Z- / 
       6        2*        2*       25       25         Z+ / 
/

RPTGRID
 'ALLNNC' /
EDIT
PROPS
NOECHO

SPECROCK
 0   2146.1
 100 2146.1 /
 
SPECHEAT
 0   2.2190 4.1868 2.1353
 100 2.2190 4.1868 2.1353 /

DENSITY
 924.1 1000 1.03446 /
-- /
PVTW
 290 1.00 3.7876e-08 0.39831 7.4714e-05 /

PVTO
 3.914 10 1.102358 2.8625 15 1.101766 2.9007 25 1.100611 2.9695 45 1.098386 3.096 65 1.096264 3.2159 84 1.09434 3.3266 100 1.09279 3.4196 115 1.091386 3.5061 145 1.088703 3.68 175 1.086197 3.8558 205 1.083836 4.0325 235 1.08161 4.2138 265 1.079499 4.398 305 1.076868 4.6491 355 1.073821 4.9755 405 1.071023 5.315 455 1.068434 5.6693 505 1.066021 6.0404 555 1.063785 6.4282 605 1.061694 6.8346 /
 7.05 15 1.11254 2.6589 25 1.111313 2.7221 45 1.108952 2.8374 65 1.106706 2.9472 84 1.104678 3.0504 100 1.103034 3.135 115 1.101547 3.215 145 1.098718 3.374 175 1.096077 3.5349 205 1.093581 3.6977 235 1.091241 3.8632 265 1.089026 4.0316 305 1.086259 4.2622 355 1.083056 4.5607 405 1.080113 4.8723 455 1.077398 5.1968 505 1.074871 5.5354 555 1.072531 5.8906 605 1.070337 6.2617 /
 12.443 25 1.129045 2.4329 45 1.126476 2.537 65 1.124032 2.6356 84 1.121827 2.7277 100 1.120049 2.804 115 1.118437 2.8756 145 1.115379 3.0188 175 1.112519 3.1639 205 1.109836 3.3089 235 1.107298 3.4577 265 1.104917 3.6084 305 1.101942 3.8149 355 1.09851 4.0818 405 1.095349 4.3589 455 1.092437 4.6491 505 1.089733 4.9513 555 1.087226 5.2675 605 1.084886 5.5986 /
 22.022 45 1.156844 2.1297 65 1.154036 2.2143 84 1.151498 2.2934 100 1.14946 2.3594 115 1.147619 2.4208 145 1.144135 2.5445 175 1.14088 2.6682 205 1.137822 2.7928 235 1.134962 2.9183 265 1.132269 3.0467 305 1.12891 3.2215 355 1.125041 3.4466 405 1.121494 3.68 455 1.118229 3.9227 505 1.115213 4.1766 555 1.112415 4.4408 605 1.109805 4.717 /
 30.929 65 1.181544 1.887 84 1.178674 1.9567 100 1.176375 2.0153 115 1.174306 2.0693 145 1.170374 2.179 175 1.166724 2.2887 205 1.163313 2.3994 235 1.16012 2.511 265 1.157114 2.6235 305 1.153381 2.7761 355 1.149086 2.9723 405 1.145154 3.1732 455 1.141546 3.3815 505 1.138218 3.5982 555 1.135129 3.8232 605 1.132258 4.0576 /
 39.185 84 1.203821 1.6703 100 1.201252 1.7224 115 1.198943 1.7707 145 1.194586 1.8674 175 1.19054 1.9651 205 1.186765 2.0637 235 1.183239 2.1623 265 1.179922 2.2618 305 1.175814 2.3966 355 1.171102 2.5668 405 1.166807 2.7416 455 1.162866 2.9211 505 1.159226 3.1062 555 1.155866 3.2969 605 1.152736 3.4949 /
 48.354 100 1.230434 1.4071 115 1.227834 1.4471 145 1.222946 1.5261 175 1.218422 1.6061 205 1.214221 1.6861 235 1.21029 1.7679 265 1.206618 1.8488 305 1.202063 1.9586 355 1.196863 2.0962 405 1.192121 2.2367 455 1.187784 2.3789 505 1.18379 2.524 555 1.180098 2.6728 605 1.176677 2.8244 /
 57.525 115 1.257038 1.2109 145 1.251588 1.2769 175 1.246565 1.342 205 1.241895 1.408 235 1.237548 1.475 265 1.233492 1.541 305 1.228479 1.6312 355 1.222759 1.7438 405 1.217559 1.8563 455 1.212806 1.9697 505 1.208449 2.0851 555 1.204424 2.1995 605 1.200701 2.3166 /
 77.608 145 1.315288 0.9216 175 1.309038 0.9681 205 1.303276 1.0146 235 1.297941 1.0611 265 1.29298 1.1086 305 1.286875 1.1699 355 1.279949 1.2481 405 1.273688 1.3253 455 1.267989 1.4024 505 1.262778 1.4778 555 1.257984 1.5531 605 1.253554 1.6368 /
 100.22 175 1.380787 0.7152 205 1.373642 0.7496 235 1.367059 0.784 265 1.360965 0.8184 305 1.353508 0.864 355 1.345094 0.9216 405 1.337534 0.9774 455 1.33069 1.0342 505 1.32445 1.09 555 1.318741 1.1458 605 1.313478 1.2006 /
 125.631 205 1.454242 0.5515 235 1.446089 0.5766 265 1.43858 0.6008 305 1.429449 0.6352 355 1.419215 0.6761 405 1.410063 0.718 455 1.401826 0.7598 505 1.394359 0.8007 555 1.387537 0.8417 605 1.381286 0.8826 /
 154.131 235 1.536392 0.4659 265 1.527105 0.4845 305 1.515894 0.5106 355 1.503403 0.5441 405 1.492327 0.5766 455 1.482406 0.611 505 1.473451 0.6445 555 1.465308 0.678 605 1.457872 0.7115 /
 186.033 265 1.627974 0.3832 305 1.614163 0.4008 355 1.598906 0.4222 405 1.58547 0.4445 455 1.57351 0.4669 505 1.562766 0.4892 555 1.553053 0.5115 605 1.544202 0.5329 /
 234.469 305 1.766201 0.3097 355 1.746243 0.3255 405 1.728854 0.3413 455 1.713504 0.3571 505 1.699828 0.372 555 1.687525 0.3869 605 1.676397 0.4018 /
/

PVDG
 10 0.266161 0.0108 15 0.127259 0.0116 25 0.062022 0.0123 45 0.03019 0.0131 65 0.019752 0.0137 84 0.014799 0.0144 100 0.012136 0.0149 115 0.010358 0.0155 145 0.007993 0.017 175 0.006524 0.0191 205 0.005556 0.0218 235 0.004901 0.0254 265 0.004461 0.0301 305 0.004112 0.0388 355 0.003966 0.0568 405 0.00385 0.0884 455 0.003763 0.1363 505 0.003699 0.1746 /
-- /
ROCK
 277 4.22425e-05 /

SWOF
 0.05 0 1 1.21172 0.07375 5.46e-06 0.9590148 0.5499575 0.0975 4.33e-05 0.9077636 0.311818 0.12125 0.00014674 0.8517754 0.2002018 0.145 0.000351 0.7930875 0.1391775 0.16875 0.00069387 0.7331341 0.1022528 0.1925 0.00121609 0.673071 0.07824229 0.21625 0.00196163 0.6138609 0.06176574 0.24 0.00297812 0.5563015 0.04997649 0.26375 0.00431719 0.5010363 0.04125442 0.2875 0.0060348 0.4485628 0.03462279 0.31125 0.00819172 0.3992427 0.02946443 0.335 0.01085385 0.3533137 0.02537398 0.35875 0.01409272 0.3109052 0.02207633 0.3825 0.0179859 0.2720533 0.0193795 0.40625 0.02261746 0.2367183 0.0171462 0.43 0.02807848 0.2048 0.0152762 0.45375 0.03446755 0.1761529 0.01369492 0.4775 0.04189128 0.1505989 0.01234598 0.50125 0.05046489 0.1279386 0.01118608 0.525 0.06031276 0.1079608 0.01018156 0.54875 0.07156914 0.09044951 0.00930591 0.5725 0.08437884 0.07519013 0.00853805 0.59625 0.09889809 0.06197354 0.00786102 0.62 0.1152956 0.05059922 0.00726107 0.64375 0.1337537 0.0408773 0.00672696 0.6675 0.1544705 0.03262981 0.00624941 0.69125 0.1776617 0.02569132 0.00582073 0.715 0.2035645 0.01990901 0.00543449 0.73875 0.2324423 0.01514253 0.00508527 0.7625 0.2645923 0.01126342 0.00476851 0.78625 0.3003568 0.00815454 0.00448031 0.81 0.3401413 0.00570925 0.00421734 0.83375 0.3844435 0.0038306 0.00397675 0.8575 0.4339033 0.00243042 0.00375609 0.88125 0.4893905 0.0014284 0.0035532 0.9007071 0.5402097 0.00085263 0.00339893 0.9201642 0.5969658 0.00045739 0.00325444 0.9482071 0.6928586 0.0001349 0.0030618 0.97625 0.8165762 1.54e-05 0.00288569 1 1 0 0.0027481 /
SGOF
 0 0 1 0 0.025 0.001021 0.956899 0 0.05 0.003535 0.906993 0 0.075 0.007411 0.852412 0 0.1 0.01265 0.794177 0 0.125 0.019291 0.733279 0 0.15 0.02739 0.670767 0 0.175 0.037014 0.607724 0 0.2 0.048236 0.545235 0 0.225 0.061133 0.484326 0 0.25 0.075781 0.425915 0 0.275 0.092259 0.370776 0 0.3 0.110637 0.319506 0 0.325 0.130983 0.27252 0 0.35 0.153354 0.230051 0 0.375 0.177796 0.192167 0 0.4 0.20434 0.1588 0 0.425 0.232995 0.129766 0 0.45 0.263751 0.104801 0 0.475 0.296569 0.083585 0 0.5 0.331382 0.065766 0 0.525 0.368084 0.05098 0 0.55 0.406536 0.038865 0 0.575 0.446554 0.029073 0 0.6 0.487913 0.021277 0 0.625 0.53034 0.015176 0 0.65 0.573516 0.010494 0 0.675 0.617074 0.006986 0 0.7 0.660596 0.004433 0 0.725 0.703615 0.002643 0 0.75 0.745609 0.001448 0 0.775 0.785986 0.000703 0 0.8 0.824064 0.000282 0 0.825 0.858993 8.1e-05 0 0.85 0.889539 1.1e-05 0 0.875 0.912904 0 0 0.9 0.915404 0 0 0.95 1 0 0 /
REGIONS
EQUALS
  EQLNUM 1 /
  SATNUM 1 /  
/

SOLUTION
RPTRST
 'BASIC = 2' PBPD ALLPROPS /
EQUIL
 2000 195 1000 0 500 0 1 0 0 /

PBVD
 2000 75
 2150 75 /


RTEMPVD
 1900 90
 2200 90 /
/

STREQUIL
-- DatumDepth       DatumPosX       DatumPosY     StressXXOffset  StressXXGrad    StressYYOffset  StressYYGrad    StessZZOffset   StressZZGrad  xy xz yz
  0.0000000e+00   0.0000000e+00   0.0000000e+00   0.0000000e+00   1.6700000e-01   0.0000000e+00   1.6700000e-01   0.0000000e+00   2.2000000e-01 0.0 0.0 0.0 0.0 0.0 0.0 /
/

    
    
SUMMARY
ALL
PERFORMA
WFCFFVIR
/

WFCFFVIR
/


WFCWFVIR
/
    
WFCFVIR
/    

CFCFFVIR
    *  /
/


CFCWFVIR
    *  /
/
    
CFCFVIR
    *  /
/    
      

WFCFFVIT
/

WFCWFVIR
/
WFCWFVIT
/

WFCFVIR
/    

WFCFVIT
/

WWIRFRAC
/
CWIR
*  /
/
CWIRFRAC
*  /
/        

CFCFFRAC
'B-3H'*/
/
CFCFRATE
'B-3H'*/
/

CPI
'B-3H' /
/
CINJFVR
  'B-3H' /
/
CINJFVT
  'B-3H' /
/
CFCSKIN
  'B-3H' /
/
CFCWIDTH
  'B-3H' /
/
CFCPERM
  'B-3H' /
/
CFCPORO
  'B-3H' /
/
CFCRAD
  'B-3H' /
/
CFCAOF
  'B-3H' /
/

CFRINJPR
*/
/

CFRINJBH
    */
/
    
CFRINJRA
*/
/
--
CWIR
* * /
/
CTFAC
* * /
/

CPR
* */
/

CFRAREA
'B-3H' */
/
CFRFLUX
'B-3H' */
/
CFRHEIGH
'B-3H' */
/            
CFRLENGT
'B-3H' */
/    

CFRFVOLU
'B-3H'*/
/
CFRWI
'B-3H'*/
/
CFRAVGW
'B-3H'*/
/
CFRAVGFW
'B-3H'*/
/                                        

CPI
'B-3H' /
/
CINJFVR
  'B-3H' /
/
CINJFVT
  'B-3H' /
/

BPR
  6 6 16 /
/
BTEMP
  6 6 16 /
/
BSTRSSXX
  6 6 16 /
/    
            
--

SCHEDULE
TUNING
 0.5 15 /
 /
 2* 50 1* 20 /
NUPCOL
 4 /
 
 BCPROP
       1       FREE      WATER   1.0000000e+00   1.0000000e+00   1.0000000e+00      FIXED        1        0        0   0.0000000e+00   0.0000000e+00   0.0000000e+00   0.0000000e+00   0.0000000e+00   0.0000000e+00 / 
       2       FREE      WATER   1.0000000e+00   1.0000000e+00   1.0000000e+00      FIXED        1        0        0   0.0000000e+00   0.0000000e+00   0.0000000e+00   0.0000000e+00   0.0000000e+00   0.0000000e+00 / 
       3       FREE      WATER   1.0000000e+00   1.0000000e+00   1.0000000e+00      FIXED        0        1        0   0.0000000e+00   0.0000000e+00   0.0000000e+00   0.0000000e+00   0.0000000e+00   0.0000000e+00 / 
       4       FREE      WATER   1.0000000e+00   1.0000000e+00   1.0000000e+00      FIXED        0        1        0   0.0000000e+00   0.0000000e+00   0.0000000e+00   0.0000000e+00   0.0000000e+00   0.0000000e+00 / 
       6       NONE      WATER   1.0000000e+00   1.0000000e+00   1.0000000e+00      FIXED        0        0        1   0.0000000e+00   0.0000000e+00   0.0000000e+00   0.0000000e+00   0.0000000e+00   0.0000000e+00 / 
--       5       NONE      WATER   1.0000000e+00   1.0000000e+00   1.0000000e+00      FIXED        0        0        1   0.0000000e+00   0.0000000e+00   0.0000000e+00   0.0000000e+00   0.0000000e+00   0.0000000e+00 / 
/
GRUPTREE
 'PROD' 'FIELD' /
 'M5S' 'PLAT-A' /
 'M5N' 'PLAT-A' /
 'C1' 'M5N' /
 'F1' 'M5N' /
 'B1' 'M5S' /
 'G1' 'M5S' /
/
--RPTRST
-- 'BASIC=2' /

WELSPECS
-- 'B-2H' 'B1' 1* 1* 1* 'OIL' 2* 'SHUT' /
 'B-3H' 'B1' 1* 1* 1* 'WATER' 2* 'SHUT' /
/
COMPDAT
--  'B-2H' 17 32 11 16 'OPEN' 2* 0.216 1* 0 1* 'Z' /
  'B-3H' 6 6 16 16 'OPEN' 2* 0.216 1* 0 1* 'Z' /
/

-- WELTRAJ
-- -- WELL	BRANCH_NO	X		Y	 	TVD 		MD 
-- --'B-2H'	1*			327	    628	   0.0		0.0 /
-- --'B-2H'	1*			327	    628	   2400		    2400 /
-- 'B-3H' 	1*			1000    1000	0.0		0.0 /
-- 'B-3H' 	1*			1000	1000	2400.0		2400.0/
-- /
    
-- COMPTRAJ 
-- -- WELL	 BRANCH  PERF	  PERF    PERF COMPL STATE SAT    CONN DIAM	KH	SKIN D_FACT 
-- -- NAME  NO      TOP      BOT     REF  NO    --    TABLE  FACT --   --  --   --     
-- --  'B-2H' 1*	     2100.00     2220.0  1*   1*	 1*    1*     1*   0.216  1*  1*  1*   	/
-- --  'B-3H' 1* 	 2180.001     2260.0  1*   1*	 1*    1*     1*   0.216  1*  1*  1*     /
-- --      'B-3H' 1* 	 2180     2260.0  1*   1*	 1*    1*     1*   0.216  1*  1*  1*     /
--       'B-3H' 1* 	 2200     2220.0  1*   1*	 1*    1*     1*   0.216  1*  1*  1*     /    
-- /

-- WCONPROD
--  'B-2H' 'OPEN' 'ORAT' 1500 2* 3000 1* 100 /
-- /
WCONINJE
 'B-3H' 'WATER' 'OPEN' 'RATE' 20000 1* 290 /
/
--UDQ
--DEFINE FUFRAC BSTRESSXX  6 6 16 - BPR  6 6 16 /
WSEED
 'B-3H' 6 6 16 0 1 0 5 0 1e-4/
/

-- WINJDAM
--    'B-3H' 'LINRAD' 10.0 0.0 /
-- /

-- WINJFCNC
--    'B-3H' 10.0000 /
-- /

WTEMP
 'B-3H' 15 /
/
TSTEP
 -- 18*5
 3*5
/    
DATES
 10 'APR' 2020 12:00:00 /
/
END    
DATES
 10 'FEB' 2021 12:00:00 /
/
END        
TSTEP
  10*36500
/ 

    
END    
DATES
 10 'FEB' 2020 12:00:00 /
/
--END
DATES
 11 'MAR' 2020 12:00:00 /
/
END
DATES
 10 'APR' 2020 12:00:00 /
/

DATES
 10 'MAY' 2020 12:00:00 /
/

DATES
 09 'JUN' 2020 12:00:00 /
/

DATES
 09 'JUL' 2020 12:00:00 /
/

DATES
 08 'AUG' 2020 12:00:00 /
/

DATES
 07 'SEP' 2020 12:00:00 /
/

DATES
 07 'OCT' 2020 12:00:00 /
/

DATES
 06 'NOV' 2020 12:00:00 /
/

DATES
 06 'DEC' 2020 12:00:00 /
/

DATES
 1 'JAN' 2021 /
/
